Version 4
SHEET 1 880 680
WIRE 48 32 -64 32
WIRE 144 32 48 32
WIRE 448 32 144 32
WIRE 544 32 448 32
WIRE 672 32 544 32
WIRE 800 32 672 32
WIRE 448 64 448 32
WIRE -64 80 -64 32
WIRE 48 80 48 32
WIRE 144 80 144 32
WIRE 544 128 544 112
WIRE 544 128 448 128
WIRE 688 128 544 128
WIRE 544 144 544 128
WIRE -64 176 -64 160
WIRE -32 176 -64 176
WIRE 48 176 48 160
WIRE 48 176 32 176
WIRE 144 176 144 144
WIRE 144 176 48 176
WIRE 800 176 800 32
WIRE 544 208 448 208
WIRE 608 208 544 208
WIRE 672 208 672 32
WIRE 448 224 448 208
WIRE -64 256 -64 224
WIRE 448 256 448 224
WIRE -64 400 -64 336
WIRE 448 400 448 336
WIRE 448 400 -64 400
WIRE 800 400 800 256
WIRE 800 400 448 400
WIRE 448 432 448 400
FLAG 448 432 0
FLAG 752 128 out
SYMBOL res -80 64 R0
WINDOW 0 -41 36 Left 2
WINDOW 3 -58 78 Left 2
SYMATTR InstName R1
SYMATTR Value 1.8k
SYMBOL res 32 64 R0
SYMATTR InstName R2
SYMATTR Value 33k
SYMBOL cap 128 80 R0
SYMATTR InstName C1
SYMATTR Value 1n
SYMBOL cap 432 64 R0
WINDOW 3 32 47 Left 2
SYMATTR Value 39p
SYMATTR InstName C2
SYMBOL res 432 240 R0
WINDOW 0 39 50 Left 2
WINDOW 3 36 88 Left 2
SYMATTR InstName R3
SYMATTR Value 150
SYMBOL cap 528 144 R0
WINDOW 0 24 6 Left 2
WINDOW 3 31 47 Left 2
SYMATTR InstName C3
SYMATTR Value 5p
SYMBOL ind 528 16 R0
SYMATTR InstName L1
SYMATTR Value 0.1µ
SYMBOL cap 672 192 R90
WINDOW 0 0 32 VBottom 2
WINDOW 3 32 32 VTop 2
SYMATTR InstName C4
SYMATTR Value 68p
SYMBOL cap 752 112 R90
WINDOW 0 0 32 VBottom 2
WINDOW 3 32 32 VTop 2
SYMATTR InstName C5
SYMATTR Value 2p
SYMBOL cap 32 160 R90
WINDOW 0 0 32 VBottom 2
WINDOW 3 32 32 VTop 2
SYMATTR InstName C6
SYMATTR Value 47n
SYMBOL npn 384 128 R0
WINDOW 0 37 34 Left 2
WINDOW 3 35 63 Left 2
SYMATTR InstName Q1
SYMATTR Value 2N3904
SYMBOL voltage 800 160 R0
WINDOW 123 0 0 Left 0
WINDOW 39 0 0 Left 0
SYMATTR InstName V1
SYMATTR Value 9
SYMBOL OpAmps\\opamp2 256 192 R0
SYMATTR InstName U1
SYMATTR Value LMX58_LM2904
SYMBOL voltage -64 240 R0
WINDOW 3 -229 108 Left 2
WINDOW 123 0 0 Left 0
WINDOW 39 0 0 Left 0
SYMATTR InstName V2
SYMATTR Value SINE(0 1m 1k)
TEXT -64 -72 Left 2 !.inc LM358.CIR
TEXT -140 456 Left 2 !.tran 0.01
